Circuit: * C:\Users\apatt\Desktop\Self-Study\_KiCAD Projects\Getting_To_Blinky_5.0\GettingToBlink5.0\GTB5_Simulation\GTB5_Sim.asc

Direct Newton iteration for .op point succeeded.

Date: Fri Sep 02 19:22:53 2022
Total elapsed time: 0.172 seconds.

tnom = 27
temp = 27
method = modified trap
totiter = 18151
traniter = 18142
tranpoints = 4913
accept = 4020
rejected = 893
matrix size = 16
fillins = 0
solver = Normal
Matrix Compiler1: 448 bytes object code size  0.1/0.1/[0.1]
Matrix Compiler2: 934 bytes object code size  0.1/0.1/[0.1]

